14

C -0.098296  0.033726  0.000358
C  0.960203  0.950023  0.015468
C  2.278483  0.545408  0.014216
C  3.427410  0.063394  0.011682
C  4.639871 -0.593498  0.008144
C  4.727889 -1.990708 -0.009113
H  5.702426 -2.460995 -0.011669
C  3.549127 -2.704959 -0.022249
C  2.296096 -2.732170 -0.026925
C  1.076724 -2.220698 -0.024487
C  0.218107 -1.307710 -0.015738
H  5.559802 -0.019573  0.018432
H  0.725030  2.008469  0.028042
H -1.116708  0.399408  0.001653
