31

C 3.0583589618 -1.5268605492  0.4895642720 
C 2.7936846691 -0.2918901828 -0.2739277581 
C 1.2706580188  0.0134899561 -0.2178445828 
C 3.4190257622  0.9945762486  0.3941816882 
C 4.9923235415  1.0017847849  0.6379138300 
N 5.6280632217  0.6345534052  1.6347645046 
N 4.9740909377  0.3079717667  2.8030256966 
O 5.6946207353  1.3511141692 -0.4746866841 
C 5.3153663061  2.4562305427 -1.1866245882 
C 3.8745459277  2.4641613720 -1.5886436258 
C 3.4770226059  3.6419742594 -2.5019506728 
C 3.0641645669  2.3380437576 -0.2713000937 
O 3.2204176493  3.5626447602  0.4321001942 
H 2.7150134476 -2.3725859339 -0.1177187911 
H 2.5011876633 -1.5508866523  1.4174295525 
H 4.0982417399 -1.6861561547  0.6968867325 
H 3.1094867442 -0.5045379305 -1.3415928649 
H 0.8246432052  0.6398615017  0.5639394284 
H 0.6776250077 -0.9439233998 -0.0648877033 
H 0.8291446600  0.3166765180 -1.1661130628 
H 3.1465090673  0.9856823856  1.4711652536 
H 4.1374815577 -0.2870507138  2.6720040788 
H 5.6204241508  0.1525239343  3.5592060150 
H 6.0294692630  2.5010391625 -2.0436087620 
H 5.6349487436  3.3619912624 -0.6641787497 
H 3.6265096329  1.5773865427 -2.1514702223 
H 3.5512912996  4.5785252168 -1.9628383734 
H 2.4434331078  3.5990937234 -2.8260684956 
H 4.1346165742  3.6426252875 -3.3885323320 
H 2.0022163598  2.2390914723 -0.5025507847 
H 3.9631111228  3.4698131808  0.9921469288 
