35

C  5.2243243922   3.7528607775  -0.5434970940  
C  4.8531893626   3.7954419414  -1.7869426732  
C  5.6006347196   3.2764308271  -2.9310574593  
C  5.5366699842   1.7920523889  -3.1405919799  
O  5.8495941156   1.3987111954  -4.4483969720  
C  6.3458302802   0.8895691709  -2.1961630992  
C  7.7829243276   0.9824346857  -1.8028417201  
C  8.2393854952   0.4888878488  -0.6660737631  
C  7.4181788045  -0.2763628819   0.3664226785  
C  8.2958514624  -0.9145162272   1.4754740210  
C  8.6882674777   1.8243330057  -2.7217745509  
C  8.8731031795   3.1214967664  -1.9010847295  
C  10.0077787239  1.1887588552  -3.0187918765  
H  4.5965096141   4.1515561122   0.2008188585  
H  6.1378799344   3.2626787157  -0.2882259666  
H  3.9586761330   4.3673379728  -2.0793200106  
H  6.6473675102   3.4283877406  -2.7675753548  
H  5.2799636740   3.8624288736  -3.9172475040  
H  4.4613704798   1.5064780507  -3.0278889658  
H  5.2100470529   1.8218485509  -5.0361251036  
H  6.3097708215  -0.1484404307  -2.7114127393  
H  5.7634847758   0.6982725490  -1.2965429164  
H  9.2620459698   0.6292930773  -0.3802456750  
H  6.8225024908  -1.0218233117  -0.1367130443  
H  6.7326385172   0.4105657441   0.8427750721  
H  9.2966166771  -0.7902729519   1.0166550814  
H  8.0102729037  -1.9370614815   1.6870318472  
H  8.4421411568  -0.4237294470   2.4143101061  
H  8.1368562989   2.0550509149  -3.5716959073  
H  9.7323074571   2.9522297587  -1.2576228368  
H  8.0676484938   3.2719238021  -1.2056055693  
H  9.0696459552   4.0599414957  -2.4224585628  
H  10.6529545440  1.2408423862  -2.1091429336  
H  10.6173445404  1.7371421590  -3.7491005670  
H  9.9024472541   0.1063793097  -3.1114731341
